Version 4
SHEET 1 880 680
WIRE 48 -112 -32 -112
WIRE 240 -112 192 -112
WIRE -32 -16 -32 -112
WIRE 48 -16 -32 -16
WIRE 240 -16 240 -112
WIRE 240 -16 192 -16
WIRE -32 128 -32 -16
WIRE 48 128 -32 128
WIRE 240 128 240 -16
WIRE 240 128 160 128
WIRE 320 128 240 128
WIRE 512 128 432 128
WIRE 512 144 512 128
WIRE -32 224 -32 192
FLAG -32 224 0
FLAG 512 224 0
SYMBOL cap -48 128 R0
WINDOW 0 -40 32 Left 2
WINDOW 3 45 34 Left 2
SYMATTR InstName C1
SYMATTR Value 1n
SYMBOL res 144 -128 R90
WINDOW 0 0 56 VBottom 2
WINDOW 3 32 56 VTop 2
SYMATTR InstName R1
SYMATTR Value 9K
SYMBOL CD4000\\CD40106B 96 80 R0
SYMATTR InstName U2
SYMBOL res 144 -32 R90
WINDOW 0 0 56 VBottom 2
WINDOW 3 32 56 VTop 2
SYMATTR InstName R2
SYMATTR Value 1K
SYMBOL diode 192 -128 R90
WINDOW 0 0 32 VBottom 2
WINDOW 3 32 32 VTop 2
SYMATTR InstName D1
SYMBOL diode 128 0 R270
WINDOW 0 32 32 VTop 2
WINDOW 3 0 32 VBottom 2
SYMATTR InstName D2
SYMBOL CD4000\\CD40106B 368 80 R0
SYMATTR InstName U1
SYMBOL res 496 128 R0
SYMATTR InstName R3
SYMATTR Value 100K
TEXT 40 280 Left 2 !.tran 0 0.0001 0 100U startup uic
TEXT 40 304 Left 2 !.lib cd4000.lib
